version 2
1
9
.tran 1u 1{return}{return}{return}.kicad adjustpaths{return}.save all{return}.probe alli
6
1
V(Net-_D1-A_)
 
1
V(Net-_D3-A_)
 
1
V(Net-_Q1-C_)
 
1
V(Net-_Q4-C_)
 
1
V(Net-_R3-Pad1_)
 
1
V(unconnected-_RV3-Pad2_)
 
